Version 4
SHEET 1 880 680
WIRE -64 48 -112 48
WIRE 80 48 16 48
WIRE 192 48 144 48
WIRE 320 48 272 48
WIRE 464 48 400 48
WIRE 576 48 528 48
WIRE -368 96 -400 96
WIRE -240 96 -288 96
WIRE -160 96 -240 96
WIRE -112 96 -112 48
WIRE -112 96 -160 96
WIRE 192 96 192 48
WIRE 272 96 272 48
WIRE 272 96 192 96
WIRE 576 96 576 48
WIRE 640 96 576 96
WIRE 736 96 640 96
WIRE -112 160 -112 96
WIRE 0 160 -112 160
WIRE 192 160 192 96
WIRE 192 160 80 160
WIRE 272 160 272 96
WIRE 384 160 272 160
WIRE 576 160 576 96
WIRE 576 160 464 160
WIRE -400 176 -400 96
WIRE 736 176 736 96
WIRE -400 304 -400 256
WIRE -160 304 -160 96
WIRE 144 304 -160 304
WIRE 640 304 640 96
WIRE 640 304 224 304
FLAG -400 304 0
FLAG 736 176 0
FLAG -240 96 in
SYMBOL res -80 32 M90
WINDOW 0 0 56 VBottom 2
WINDOW 3 32 56 VTop 2
SYMATTR InstName R1
SYMATTR Value 50
SYMBOL CPE_0.01_to_100e6 144 32 R90
WINDOW 39 57 -32 VRight 2
SYMATTR SpiceLine T=0.2u p=0.7
SYMATTR InstName X1
SYMBOL res -16 144 M90
WINDOW 0 0 56 VBottom 2
WINDOW 3 32 56 VTop 2
SYMATTR InstName R2
SYMATTR Value 2k
SYMBOL res 304 32 M90
WINDOW 0 0 56 VBottom 2
WINDOW 3 32 56 VTop 2
SYMATTR InstName R3
SYMATTR Value 100
SYMBOL CPE_0.01_to_100e6 528 32 R90
WINDOW 39 59 -35 VRight 2
SYMATTR SpiceLine T=100u p=0.5
SYMATTR InstName X2
SYMBOL res 368 144 M90
WINDOW 0 0 56 VBottom 2
WINDOW 3 32 56 VTop 2
SYMATTR InstName R4
SYMATTR Value 10k
SYMBOL res 128 288 M90
WINDOW 0 0 56 VBottom 2
WINDOW 3 32 56 VTop 2
SYMATTR InstName R5
SYMATTR Value 10k
SYMBOL voltage -400 160 M0
WINDOW 3 37 42 Left 2
WINDOW 39 0 0 Left 0
WINDOW 123 41 77 Left 2
SYMATTR Value PWL(0 0 1u 0 1.1u 10k 2.2u 10k 2.3u 0)
SYMATTR Value2 AC 1
SYMATTR InstName V1
SYMBOL res -384 80 M90
WINDOW 0 0 56 VBottom 2
WINDOW 3 32 56 VTop 2
SYMATTR InstName R6
SYMATTR Value 50
TEXT -216 464 Left 2 !.tran 0 6u 0 100n
TEXT -224 432 Left 2 ;.ac oct 1000 1 1Meg
TEXT 192 -72 Left 2 ;potato
RECTANGLE Normal 672 368 -208 -48 2
